Version 4
SHEET 1 880 680
WIRE -256 -240 -368 -240
WIRE -224 -240 -256 -240
WIRE -80 -240 -144 -240
WIRE 16 -240 -80 -240
WIRE 208 -240 208 -256
WIRE 208 -240 96 -240
WIRE 96 -224 96 -240
WIRE -80 -208 -80 -240
WIRE -256 -176 -256 -240
WIRE -256 -176 -464 -176
WIRE 16 -176 16 -240
WIRE -256 -160 -256 -176
WIRE 208 -160 208 -240
WIRE -464 -128 -464 -176
WIRE -80 -112 -80 -128
WIRE -32 -112 -80 -112
WIRE 96 -112 96 -144
WIRE 96 -112 64 -112
WIRE 144 -112 96 -112
WIRE -80 -96 -80 -112
WIRE -48 128 -48 112
WIRE -48 128 -64 128
WIRE -32 128 -48 128
WIRE -48 144 -48 128
WIRE -320 192 -336 192
WIRE -208 192 -208 176
WIRE -208 192 -320 192
WIRE 32 192 16 192
WIRE 48 192 32 192
WIRE 160 192 160 160
WIRE 160 192 128 192
WIRE 208 192 208 -64
WIRE 208 192 160 192
WIRE -320 208 -320 192
WIRE -208 208 -208 192
WIRE 32 240 32 192
FLAG -448 176 0
FLAG -448 96 5V
FLAG -208 288 0
FLAG -48 240 0
FLAG -48 32 5V
FLAG -208 80 5V
FLAG -32 128 BUSY
IOPIN -32 128 BiDir
FLAG 32 320 0
FLAG 160 160 /BUSY
IOPIN 160 160 BiDir
FLAG 208 -256 5V
FLAG -80 -96 0
FLAG -464 -48 0
FLAG -256 -96 0
FLAG -320 272 0
FLAG -368 -240 /DTR
IOPIN -368 -240 Out
FLAG -336 192 /CTS
IOPIN -336 192 In
SYMBOL voltage -448 80 R0
WINDOW 123 0 0 Left 0
WINDOW 39 0 0 Left 0
SYMATTR InstName V1
SYMATTR Value 5
SYMBOL pnp -144 176 R180
SYMATTR InstName Q1
SYMATTR Value 2N3906
SYMBOL res -224 192 R0
SYMATTR InstName R1
SYMATTR Value 2.2k
SYMBOL res -48 112 R90
WINDOW 0 0 56 VBottom 2
WINDOW 3 32 56 VTop 2
SYMATTR InstName R2
SYMATTR Value 4.7k
SYMBOL res -64 16 R0
SYMATTR InstName R3
SYMATTR Value 4.7k
SYMBOL npn 16 144 M0
SYMATTR InstName Q2
SYMATTR Value 2N3904
SYMBOL res 144 176 R90
WINDOW 0 0 56 VBottom 2
WINDOW 3 32 56 VTop 2
SYMATTR InstName R4
SYMATTR Value 4.7k
SYMBOL res 48 336 R180
WINDOW 0 36 76 Left 2
WINDOW 3 36 40 Left 2
SYMATTR InstName R5
SYMATTR Value 4.7k
SYMBOL pnp 144 -64 M180
SYMATTR InstName Q3
SYMATTR Value 2N3906
SYMBOL res 80 -240 R0
SYMATTR InstName R6
SYMATTR Value 4.7k
SYMBOL npn 64 -176 R90
SYMATTR InstName Q4
SYMATTR Value 2N3904
SYMBOL res -128 -256 R90
WINDOW 0 0 56 VBottom 2
WINDOW 3 32 56 VTop 2
SYMATTR InstName R7
SYMATTR Value 4.7k
SYMBOL res -64 -112 R180
WINDOW 0 36 76 Left 2
WINDOW 3 36 40 Left 2
SYMATTR InstName R8
SYMATTR Value 20k
SYMBOL voltage -464 -144 R0
WINDOW 123 0 0 Left 0
WINDOW 39 0 0 Left 0
SYMATTR InstName V2
SYMATTR Value PULSE(5 0 0.001 0 0 0.001 0.002)
SYMBOL cap -272 -160 R0
SYMATTR InstName C1
SYMATTR Value 220p
SYMBOL cap -336 208 R0
SYMATTR InstName C2
SYMATTR Value 220p
TEXT -496 344 Left 2 !.tran 0.01
