Version 4
SHEET 1 880 680
WIRE -64 -112 -96 -112
WIRE -48 -112 -64 -112
WIRE 176 -112 176 -128
WIRE 176 -112 48 -112
WIRE 240 -112 176 -112
WIRE 368 -112 320 -112
WIRE 416 -112 368 -112
WIRE 176 -96 176 -112
WIRE 368 -80 368 -112
WIRE -64 -32 -64 -112
WIRE -64 -32 -80 -32
WIRE 176 0 176 -16
WIRE 240 0 176 0
WIRE 176 16 176 0
WIRE -96 96 -96 80
WIRE -96 96 -240 96
WIRE 0 96 -96 96
WIRE 32 96 32 16
WIRE 32 96 0 96
WIRE 48 96 32 96
WIRE 0 112 0 96
WIRE -96 128 -96 96
WIRE -240 160 -240 96
WIRE 16 320 0 320
WIRE 0 352 0 320
WIRE 0 352 -48 352
WIRE 0 368 0 352
WIRE 176 448 128 448
WIRE 288 448 176 448
WIRE 176 464 176 448
FLAG 368 16 0
FLAG 176 112 0
FLAG -368 48 0
FLAG -368 -32 5V
FLAG 176 -128 5V
FLAG 0 192 0
FLAG -96 192 0
FLAG -96 -112 BUS-
FLAG 416 -112 BUS+
FLAG -96 80 TX
FLAG -240 240 0
FLAG -160 -32 0
FLAG 320 480 0
FLAG 320 416 5V
FLAG 352 432 BUS+
FLAG 352 464 BUS-
FLAG 176 544 0
FLAG 0 464 0
FLAG 96 320 5V
FLAG -48 352 RX
SYMBOL nmos 128 16 R0
SYMATTR InstName M1
SYMATTR Value SP8K3
SYMBOL pmos -48 -64 R270
SYMATTR InstName M3
SYMATTR Value SP8M3_P
SYMBOL res 160 -112 R0
SYMATTR InstName R1
SYMATTR Value 10k
SYMBOL res 336 -16 R90
WINDOW 0 0 56 VBottom 2
WINDOW 3 32 56 VTop 2
SYMATTR InstName R2
SYMATTR Value 100
SYMBOL res 336 -128 R90
WINDOW 0 0 56 VBottom 2
WINDOW 3 32 56 VTop 2
SYMATTR InstName R3
SYMATTR Value 10k
SYMBOL voltage -368 -48 R0
WINDOW 123 0 0 Left 0
WINDOW 39 0 0 Left 0
SYMATTR InstName V1
SYMATTR Value 5
SYMBOL res 144 80 R90
WINDOW 0 0 56 VBottom 2
WINDOW 3 32 56 VTop 2
SYMATTR InstName R4
SYMATTR Value 100
SYMBOL res 48 32 R180
WINDOW 0 36 76 Left 2
WINDOW 3 36 40 Left 2
SYMATTR InstName R5
SYMATTR Value 100
SYMBOL res -16 96 R0
SYMATTR InstName R6
SYMATTR Value 10k
SYMBOL cap -112 128 R0
SYMATTR InstName C1
SYMATTR Value 220p
SYMBOL voltage -240 144 R0
WINDOW 123 0 0 Left 0
WINDOW 39 0 0 Left 0
SYMATTR InstName V2
SYMATTR Value PULSE(5 0 300u 1u 1u 100u 200u 5)
SYMBOL res -64 -48 R90
WINDOW 0 0 56 VBottom 2
WINDOW 3 32 56 VTop 2
SYMATTR InstName R7
SYMATTR Value 10k
SYMBOL nmos 320 -80 R0
SYMATTR InstName M2
SYMATTR Value SP8K3
SYMBOL res 192 560 R180
WINDOW 0 36 76 Left 2
WINDOW 3 36 40 Left 2
SYMATTR InstName R8
SYMATTR Value 10k
SYMBOL res 144 432 R90
WINDOW 0 0 56 VBottom 2
WINDOW 3 32 56 VTop 2
SYMATTR InstName R9
SYMATTR Value 100
SYMBOL nmos 48 368 M0
SYMATTR InstName M4
SYMATTR Value SP8K3
SYMBOL res 112 304 R90
WINDOW 0 0 56 VBottom 2
WINDOW 3 32 56 VTop 2
SYMATTR InstName R10
SYMATTR Value 10k
SYMBOL Opamps\\UniversalOpamp2 320 448 M0
SYMATTR InstName U1
TEXT -400 264 Left 2 !.tran 2m
