Version 4
SHEET 1 880 680
WIRE 624 0 624 -16
WIRE 624 0 448 0
WIRE 448 16 448 0
WIRE 624 64 624 0
WIRE 448 112 448 96
WIRE 480 112 448 112
WIRE 448 128 448 112
WIRE -192 160 -224 160
WIRE 160 160 -192 160
WIRE 304 176 224 176
WIRE 624 176 624 160
WIRE 704 176 624 176
WIRE -192 192 -192 160
WIRE -32 192 -64 192
WIRE 160 192 -32 192
WIRE 624 192 624 176
WIRE -32 336 -32 192
FLAG 192 208 0
FLAG -240 16 0
FLAG -240 -64 5V
FLAG 192 144 5V
FLAG -192 272 0
FLAG -32 416 0
FLAG -64 192 BUS-
FLAG -224 160 BUS+
FLAG 448 224 0
FLAG 624 272 0
FLAG 624 -16 5V
FLAG 704 176 RXD
SYMBOL Opamps\\ADTL082 192 112 R0
SYMATTR InstName U1
SYMBOL voltage -240 -80 R0
WINDOW 123 0 0 Left 0
WINDOW 39 0 0 Left 0
SYMATTR InstName V1
SYMATTR Value 5
SYMBOL voltage -32 320 R0
WINDOW 123 0 0 Left 0
WINDOW 39 0 0 Left 0
SYMATTR InstName V2
SYMATTR Value PULSE(5 0 0.001 0 0 0.001 0.002)
SYMBOL voltage -192 176 R0
WINDOW 123 0 0 Left 0
WINDOW 39 0 0 Left 0
SYMATTR InstName V3
SYMATTR Value PULSE(0 5 0.001 0 0 0.001 0.002)
SYMBOL npn 384 128 R0
SYMATTR InstName Q1
SYMATTR Value 2N3904
SYMBOL res 400 160 R90
WINDOW 0 0 56 VBottom 2
WINDOW 3 32 56 VTop 2
SYMATTR InstName R1
SYMATTR Value 4.7k
SYMBOL res 464 112 R180
WINDOW 0 36 76 Left 2
WINDOW 3 36 40 Left 2
SYMATTR InstName R2
SYMATTR Value 4.7k
SYMBOL pnp 560 160 M180
SYMATTR InstName Q2
SYMBOL res 608 176 R0
SYMATTR InstName R3
SYMATTR Value 2.2k
SYMBOL res 464 128 R270
WINDOW 0 32 56 VTop 2
WINDOW 3 0 56 VBottom 2
SYMATTR InstName R4
SYMATTR Value 4.7k
TEXT -274 440 Left 2 !.tran 0.01
